&geogrid
 geog_data_res = 'default',
 dx = 12229.52,
 dy = 12229.52,
 map_proj = 'lambert',
 ref_lat   =  52.40,
 ref_lon   = -99.90,
 truelat1  =  52.40,
 truelat2  =  52.40,
 stand_lon = -99.90,
 geog_data_path = '/project/p/peltier/WRF/geog_20210707/',
 opt_geogrid_tbl_path = 'meta/'
/
