&geogrid
 geog_data_res = 'default',
 dx = 12229.52,
 dy = 12229.52,
 map_proj = 'lambert',
 ref_lat   =  45.60,
 ref_lon   = -82.10,
 truelat1  =  45.60,
 truelat2  =  45.60,
 stand_lon = -82.10,
 geog_data_path = '/project/p/peltier/WRF/geog_20210707/',
 opt_geogrid_tbl_path = 'meta/'
/
