&share
 wrf_core = 'ARW',
 max_dom = 4,
 start_date = '1979-01-01_00:00:00', '1979-01-01_00:00:00', '1979-01-01_00:00:00', '1979-01-01_00:00:00',
 end_date   = '1979-02-01_00:00:00', '1979-02-01_00:00:00', '1979-02-01_00:00:00', '1979-02-01_00:00:00',
 interval_seconds = 21600, ! This entry does not matter, as long as pyWPS processes all dates by itself.
 io_form_geogrid = 2,
/
 
